@<TRIPOS>MOLECULE
PNS
 121 122 0 0 0
SMALL
GASTEIGER

@<TRIPOS>ATOM
      1 X           3.9040   17.8520   -6.9480 N.3    36  PNS      -0.3197
      2 X           4.2750   16.4640   -6.6610 C.3    36  PNS       0.0863
      3 X           5.3170   15.9970   -7.6930 C.2    36  PNS       0.2308
      4 X           5.0160   15.9140   -8.8830 O.2    36  PNS      -0.2741
      5 X           2.9880   15.5750   -6.7260 C.3    36  PNS      -0.0019
      6 X           3.0830   14.2140   -6.0630 C.ar   36  PNS      -0.0204
      7 X           4.1830   13.4150   -5.9160 C.ar   36  PNS       0.0060
      8 X           1.9940   13.4910   -5.4710 C.ar   36  PNS       0.0029
      9 X           3.8450   12.2710   -5.2510 N.ar   36  PNS      -0.3604
     10 X           2.5150   12.2920   -4.9640 C.ar   36  PNS       0.0467
     11 X           0.6330   13.7580   -5.3050 C.ar   36  PNS      -0.0523
     12 X           1.7260   11.3540   -4.3130 C.ar   36  PNS      -0.0378
     13 X          -0.1540   12.8270   -4.6610 C.ar   36  PNS      -0.0611
     14 X           0.3970   11.6400   -4.1650 C.ar   36  PNS      -0.0598
     15 X           3.0410   18.0030   -7.3940 H      36  PNS       0.1189
     16 X           4.6950   16.4160   -5.6590 H      36  PNS       0.0557
     17 X           2.1760   16.1090   -6.2450 H      36  PNS       0.0334
     18 X           2.7130   15.4120   -7.7640 H      36  PNS       0.0334
     19 X           5.1730   13.6710   -6.2650 H      36  PNS       0.0810
     20 X           4.4600   11.5510   -5.0200 H      36  PNS       0.1653
     21 X           0.1960   14.6710   -5.6830 H      36  PNS       0.0624
     22 X           2.1360   10.4310   -3.9270 H      36  PNS       0.0638
     23 X          -1.2130   13.0150   -4.5260 H      36  PNS       0.0618
     24 X          -0.2590   10.9330   -3.6660 H      36  PNS       0.0618
     25 X           6.5270   15.6990   -7.2270 N.am   36  PNS      -0.3022
     26 X           7.6210   15.1610   -8.0580 C.3    36  PNS       0.1094
     27 X           8.2890   14.0120   -7.2810 C.2    36  PNS       0.2345
     28 X           7.7590   13.6050   -6.2570 O.2    36  PNS      -0.2737
     29 X           8.6410   16.2790   -8.3940 C.3    36  PNS       0.0716
     30 X           9.4260   16.7840   -7.1640 C.2    36  PNS       0.3070
     31 X           8.8590   17.5320   -6.3520 O.3    36  PNS      -0.4806
     32 X          10.6100   16.4140   -7.0010 O.2    36  PNS      -0.2509
     33 X           6.7010   15.8240   -6.2760 H      36  PNS       0.1495
     34 X           7.1970   14.7580   -8.9780 H      36  PNS       0.0600
     35 X           9.3420   15.9000   -9.1290 H      36  PNS       0.0401
     36 X           8.1110   17.1200   -8.8340 H      36  PNS       0.0401
     37 N           9.4360   13.4980   -7.7730 N.am   36  PNS      -0.3005
     38 CA         10.2300   12.4210   -7.1220 C.3    36  PNS       0.1233
     39 C          10.5400   12.7260   -5.6430 C.2    36  PNS       0.2362
     40 O          10.2690   11.9060   -4.7650 O.2    36  PNS      -0.2737
     41 CB         11.5630   12.1940   -7.9140 C.3    36  PNS       0.0817
     42 OG         11.4120   11.5330   -9.1900 O.3    36  PNS      -0.3251
     43 H           9.7540   13.8000   -8.6390 H      36  PNS       0.1496
     44 HA          9.6460   11.5080   -7.1770 H      36  PNS       0.0618
     45 HB2        12.0360   13.1520   -8.0910 H      36  PNS       0.0588
     46 HB3        12.2350   11.5880   -7.3150 H      36  PNS       0.0588
     47 X          11.0900   13.9180   -5.3910 N.am   36  PNS      -0.3024
     48 X          11.5220   14.3480   -4.0450 C.3    36  PNS       0.0997
     49 X          10.3030   14.4510   -3.0960 C.2    36  PNS       0.2340
     50 X          10.3440   13.9480   -1.9720 O.2    36  PNS      -0.2738
     51 X          12.3040   15.7000   -4.1530 C.3    36  PNS      -0.0236
     52 X          13.4100   16.0100   -3.0810 C.3    36  PNS      -0.0446
     53 X          12.8380   16.2400   -1.6710 C.3    36  PNS      -0.0626
     54 X          14.5080   14.9210   -3.0720 C.3    36  PNS      -0.0626
     55 X          11.2280   14.5280   -6.1480 H      36  PNS       0.1495
     56 X          12.1900   13.5870   -3.6590 H      36  PNS       0.0594
     57 X          12.7840   15.7230   -5.1250 H      36  PNS       0.0290
     58 X          11.5810   16.5130   -4.1330 H      36  PNS       0.0290
     59 X          13.8960   16.9370   -3.3630 H      36  PNS       0.0296
     60 X          13.6420   16.4770   -0.9840 H      36  PNS       0.0232
     61 X          12.3260   15.3500   -1.3260 H      36  PNS       0.0232
     62 X          12.1410   17.0660   -1.6960 H      36  PNS       0.0232
     63 X          14.9400   14.8360   -4.0620 H      36  PNS       0.0232
     64 X          14.0860   13.9660   -2.7830 H      36  PNS       0.0232
     65 X          15.2850   15.1950   -2.3700 H      36  PNS       0.0232
     66 X           9.2050   15.0450   -3.6000 N.am   36  PNS      -0.3022
     67 X           7.9670   15.2560   -2.8100 C.3    36  PNS       0.1014
     68 X           7.1910   13.9350   -2.5890 C.2    36  PNS       0.1426
     69 X           6.4310   13.8040   -1.6250 O.2    36  PNS      -0.2990
     70 X           7.0660   16.2880   -3.5050 C.3    36  PNS       0.0692
     71 X           7.7210   17.5320   -3.6230 O.3    36  PNS      -0.3928
     72 X           9.2130   15.3090   -4.5400 H      36  PNS       0.1495
     73 X           8.2590   15.6480   -1.8370 H      36  PNS       0.0597
     74 X           6.8080   15.9420   -4.4950 H      36  PNS       0.0580
     75 X           6.1600   16.4340   -2.9290 H      36  PNS       0.0580
     76 X           8.3610   17.4900   -4.3400 H      36  PNS       0.2095
     77 P24        10.3440   11.9680  -10.3250 P.3    36  PNS       0.2126
     78 O25        10.7300   11.1520  -11.4880 O.2    36  PNS      -0.5172
     79 O26        10.3810   13.4450  -10.4790 O.3    36  PNS      -0.4373
     80 O27         8.9320   11.4750   -9.7370 O.3    36  PNS      -0.3268
     81 C28         7.6940   11.6340  -10.4230 C.3    36  PNS       0.0628
     82 C29         6.7060   10.4920  -10.0060 C.3    36  PNS       0.0234
     83 C30         5.3030   10.7810  -10.5970 C.3    36  PNS      -0.0549
     84 C31         6.5800   10.4700   -8.4590 C.3    36  PNS      -0.0549
     85 C32         7.2830    9.0940  -10.5300 C.3    36  PNS       0.1380
     86 O33         8.5270    8.7890   -9.8710 O.3    36  PNS      -0.3820
     87 C34         6.3240    7.9090  -10.3050 C.2    36  PNS       0.2423
     88 O35         6.5480    7.0910   -9.4050 O.2    36  PNS      -0.2730
     89 N36         5.2780    7.8220  -11.1470 N.am   36  PNS      -0.3127
     90 C37         4.2590    6.7750  -11.0920 C.3    36  PNS       0.0199
     91 C38         3.4870    6.7990   -9.7770 C.3    36  PNS       0.0395
     92 C39         2.7230    8.0970   -9.4780 C.2    36  PNS       0.2145
     93 O40         2.6180    8.9970  -10.3200 O.2    36  PNS      -0.2758
     94 N41         2.1440    8.1470   -8.2710 N.am   36  PNS      -0.3145
     95 C42         1.3710    9.3010   -7.7870 C.3    36  PNS       0.0204
     96 C43         0.4000    8.8890   -6.6840 C.3    36  PNS       0.0063
     97 S44         1.2440    8.1180   -5.2980 S.3    36  PNS      -0.1767
     98 H282        7.2780   12.6020  -10.1500 H      36  PNS       0.0570
     99 H281        7.8570   11.6060  -11.4960 H      36  PNS       0.0570
    100 H303        4.5900   10.0630  -10.1870 H      36  PNS       0.0237
    101 H302        4.9840   11.7830  -10.3320 H      36  PNS       0.0237
    102 H301        5.3260   10.6850  -11.6730 H      36  PNS       0.0237
    103 H313        6.2000   11.4220   -8.1020 H      36  PNS       0.0237
    104 H312        5.8930    9.6860   -8.1580 H      36  PNS       0.0237
    105 H311        7.5490   10.2810   -8.0140 H      36  PNS       0.0237
    106 H32         7.4780    9.1710  -11.5930 H      36  PNS       0.0696
    107 H33         8.3360    8.3320   -9.0410 H      36  PNS       0.2105
    108 H36         5.1670    8.5050  -11.8210 H      36  PNS       0.1488
    109 H372        3.5650    6.9210  -11.9120 H      36  PNS       0.0467
    110 H371        4.7400    5.8070  -11.1990 H      36  PNS       0.0467
    111 H382        2.7780    5.9840   -9.7780 H      36  PNS       0.0374
    112 H381        4.2000    6.6410   -8.9820 H      36  PNS       0.0374
    113 H41         2.2400    7.3790   -7.6750 H      36  PNS       0.1487
    114 H422        2.0570   10.0450   -7.3970 H      36  PNS       0.0470
    115 H421        0.8070    9.7300   -8.6100 H      36  PNS       0.0470
    116 H431       -0.3050    8.1720   -7.0850 H      36  PNS       0.0389
    117 H432       -0.1380    9.7540   -6.3250 H      36  PNS       0.0389
    118 H44         2.1160    8.9870   -4.8190 H      36  PNS       0.1017
    119 H2          3.8827   18.3539   -6.0603 H      36  PNS         0.1189
    120 HD2         7.9714   17.7944   -6.4975 H      36  PNS         0.2951
    121 H           7.3102   13.1554   -3.2547 H      36  PNS         0.1047
@<TRIPOS>BOND
     1     1    15    1
     2     1     2    1
     3     1   119    1
     4     2     3    1
     5     2     5    1
     6     2    16    1
     7     3     4    2
     8     3    25   am
     9     5    18    1
    10     5    17    1
    11     5     6    1
    12     6     7   ar
    13     6     8   ar
    14     7    19    1
    15     7     9   ar
    16     8    11   ar
    17     8    10   ar
    18     9    20    1
    19     9    10   ar
    20    10    12   ar
    21    11    21    1
    22    11    13   ar
    23    12    14   ar
    24    12    22    1
    25    13    23    1
    26    13    14   ar
    27    14    24    1
    28    25    26    1
    29    25    33    1
    30    26    34    1
    31    26    29    1
    32    26    27    1
    33    27    37   am
    34    27    28    2
    35    29    35    1
    36    29    36    1
    37    29    30    1
    38    30    32    2
    39    30    31    1
    40    31   120    1
    41    37    43    1
    42    37    38    1
    43    38    41    1
    44    38    44    1
    45    38    39    1
    46    39    47   am
    47    39    40    2
    48    41    42    1
    49    41    45    1
    50    41    46    1
    51    42    77    1
    52    47    55    1
    53    47    48    1
    54    48    51    1
    55    48    56    1
    56    48    49    1
    57    49    66   am
    58    49    50    2
    59    51    57    1
    60    51    58    1
    61    51    52    1
    62    52    59    1
    63    52    54    1
    64    52    53    1
    65    53    62    1
    66    53    61    1
    67    53    60    1
    68    54    63    1
    69    54    64    1
    70    54    65    1
    71    66    72    1
    72    66    67    1
    73    67    73    1
    74    67    70    1
    75    67    68    1
    76    68    69    2
    77    68   121    1
    78    70    74    1
    79    70    75    1
    80    70    71    1
    81    71    76    1
    82    77    78    2
    83    77    79    1
    84    77    80    1
    85    80    81    1
    86    81    82    1
    87    81    98    1
    88    81    99    1
    89    82    83    1
    90    82    84    1
    91    82    85    1
    92    83   100    1
    93    83   101    1
    94    83   102    1
    95    84   103    1
    96    84   104    1
    97    84   105    1
    98    85    86    1
    99    85    87    1
   100    85   106    1
   101    86   107    1
   102    87    88    2
   103    87    89   am
   104    89    90    1
   105    89   108    1
   106    90    91    1
   107    90   109    1
   108    90   110    1
   109    91    92    1
   110    91   111    1
   111    91   112    1
   112    92    93    2
   113    92    94   am
   114    94    95    1
   115    94   113    1
   116    95    96    1
   117    95   114    1
   118    95   115    1
   119    96    97    1
   120    96   116    1
   121    96   117    1
   122    97   118    1
